Version 4
SHEET 1 2540 900
WIRE 208 -96 176 -96
WIRE 320 -96 288 -96
WIRE 176 -48 176 -96
WIRE 320 -48 320 -96
WIRE -240 16 -384 16
WIRE -208 16 -240 16
WIRE -80 16 -128 16
WIRE 32 16 -80 16
WIRE 64 16 32 16
WIRE 960 16 448 16
WIRE 1024 16 960 16
WIRE 1168 16 1104 16
WIRE 1328 16 1168 16
WIRE -384 32 -384 16
WIRE 960 32 960 16
WIRE 1168 32 1168 16
WIRE 1328 32 1328 16
WIRE -384 48 -384 32
WIRE -240 64 -240 16
WIRE -80 64 -80 16
WIRE 32 80 32 16
WIRE 64 80 32 80
WIRE 464 80 448 80
WIRE 960 128 960 96
WIRE 1168 128 1168 96
WIRE 1328 128 1328 112
WIRE 480 144 448 144
WIRE 512 144 480 144
WIRE 512 160 512 144
WIRE -384 176 -384 128
WIRE -240 176 -240 128
WIRE -80 176 -80 128
WIRE -48 208 -192 208
WIRE 32 208 -48 208
WIRE 64 208 32 208
WIRE 480 208 480 144
WIRE 480 208 448 208
WIRE -48 240 -48 208
WIRE 32 272 32 208
WIRE 64 272 32 272
WIRE 512 272 512 240
WIRE 512 272 448 272
WIRE 512 288 512 272
WIRE -192 320 -192 208
WIRE -48 336 -48 320
WIRE 64 336 -48 336
WIRE 832 400 448 400
WIRE -192 432 -192 400
WIRE 0 432 -192 432
WIRE 832 432 832 400
WIRE -192 464 -192 432
WIRE 0 464 0 432
WIRE 64 464 0 464
WIRE 496 464 448 464
WIRE 496 480 496 464
WIRE 176 544 176 528
WIRE 320 544 320 528
WIRE -192 560 -192 544
WIRE 496 560 496 544
WIRE 832 560 832 512
FLAG 464 80 0
FLAG 1168 128 0
FLAG 1328 128 0
FLAG 832 560 0
FLAG 512 288 0
FLAG 320 544 0
FLAG 176 544 0
FLAG -384 176 0
FLAG 496 560 0
FLAG -384 32 IN
FLAG 1328 16 OUT
FLAG -240 176 0
FLAG -80 176 0
FLAG 960 128 0
FLAG -192 560 0
FLAG 176 -96 Vsw2
FLAG 320 -96 Vsw1
SYMBOL LTM4609 256 240 R0
SYMATTR InstName U1
SYMBOL ind 192 -80 R270
WINDOW 0 32 56 VTop 2
WINDOW 3 5 56 VBottom 2
SYMATTR InstName L1
SYMATTR Value {L}
SYMATTR SpiceLine Rser={DCR}
SYMBOL cap 1152 32 R0
SYMATTR InstName C1
SYMATTR Value {Cb}
SYMATTR Value2 x{nb}
SYMATTR SpiceLine Rser={Rb} Lser={Lb} ppPkg={nb}
SYMBOL res 496 144 R0
SYMATTR InstName R1
SYMATTR Value {Rsense}
SYMBOL voltage -384 32 R0
WINDOW 123 0 0 Left 2
WINDOW 39 0 0 Left 2
SYMATTR InstName V1
SYMATTR Value {Vin}
SYMBOL cap 480 480 R0
SYMATTR InstName C2
SYMATTR Value .002µ
SYMBOL res -64 336 M180
WINDOW 0 36 76 Left 2
WINDOW 3 36 40 Left 2
SYMATTR InstName R3
SYMATTR Value 100K
SYMBOL cap -256 64 R0
SYMATTR InstName C3
SYMATTR Value {Cinb}
SYMATTR Value2 x{ninb}
SYMATTR SpiceLine Rser={Rinb} Lser={Linb} ppPkg={ninb}
SYMBOL cap -96 64 R0
SYMATTR InstName C4
SYMATTR Value {Cince}
SYMATTR Value2 x{nince}
SYMATTR SpiceLine Rser={Rince} Lser={Lince} ppPkg={nince}
SYMBOL ind -224 32 R270
WINDOW 0 32 56 VTop 2
WINDOW 3 5 56 VBottom 2
SYMATTR InstName L2
SYMATTR Value {Lin}
SYMATTR SpiceLine Rser={DCRin}
SYMBOL res 816 416 R0
SYMATTR InstName R2
SYMATTR Value {Rref}
SYMBOL ind 1008 32 R270
WINDOW 0 32 56 VTop 2
WINDOW 3 5 56 VBottom 2
SYMATTR InstName L3
SYMATTR Value {Lout}
SYMATTR SpiceLine Rser={DCRo}
SYMBOL cap 944 32 R0
SYMATTR InstName C6
SYMATTR Value {Cce}
SYMATTR Value2 x{nce}
SYMATTR SpiceLine Rser={Rce} Lser={Lce} ppPkg={nce}
SYMBOL res 1312 16 R0
SYMATTR InstName R5
SYMATTR Value 1.2Meg
SYMBOL res -208 304 R0
SYMATTR InstName R6
SYMATTR Value 4k
SYMBOL res -208 448 R0
SYMATTR InstName R7
SYMATTR Value 1k
TEXT -248 696 Left 2 ;Parameters imported from LTPowerCAD Design Tool:
TEXT -240 656 Left 2 !.tran 3.5m startup
TEXT -248 616 Left 2 ;If simulation model is not found, please "Sync Release".
TEXT -248 744 Left 2 !.params Vin=9V Io=4A Rref=3.42K \n.params Cinb=150u Rinb=72m Linb=3.3n ninb=1 Lin=100p DCRin=0 \n.params Cince=10u Rince=7m Lince=1.2n nince=1 L=4.7u DCR=7m \n.params Cb=150u Rb=35m Lb=3n nb=2 Lout=100p DCRo=0 \n.params Cce=10u Rce=5m Lce=1.5n nce=2 Rsense=7.5m
