Version 4
SHEET 1 880 680
WIRE -64 -64 -176 -64
WIRE 32 -64 -64 -64
WIRE 224 -64 32 -64
WIRE -64 -48 -64 -64
WIRE -176 -16 -176 -64
WIRE 224 0 224 -64
WIRE -64 32 -64 16
WIRE 32 48 32 -64
WIRE 96 48 32 48
WIRE 400 48 352 48
WIRE -176 80 -176 64
WIRE 400 128 400 48
WIRE 400 128 352 128
WIRE -32 208 -64 208
WIRE 96 208 48 208
WIRE 544 208 352 208
WIRE 624 208 544 208
WIRE 656 208 624 208
WIRE -64 224 -64 208
WIRE 448 288 352 288
WIRE 544 304 544 272
WIRE 608 304 544 304
WIRE 656 304 656 288
WIRE 656 304 608 304
WIRE 608 320 608 304
WIRE 224 368 224 336
WIRE 448 384 448 368
FLAG -176 80 0
FLAG 224 368 0
FLAG -176 -64 VIN
FLAG 448 384 0
FLAG 608 320 0
FLAG 624 208 VOUT
FLAG -64 224 0
FLAG -64 32 0
SYMBOL PowerProducts\\LTM8050 224 176 R0
SYMATTR InstName U1
SYMBOL voltage -176 -32 R0
SYMATTR InstName V1
SYMATTR Value 48
SYMBOL res 432 272 R0
SYMATTR InstName R1
SYMATTR Value 90.9k
SYMBOL cap 528 208 R0
SYMATTR InstName C1
SYMATTR Value 100µ
SYMATTR SpiceLine V=6.3
SYMBOL res 640 192 R0
SYMATTR InstName R2
SYMATTR Value 2.5
SYMBOL res 64 192 R90
WINDOW 0 0 56 VBottom 2
WINDOW 3 32 56 VTop 2
SYMATTR InstName R3
SYMATTR Value 93.1k
SYMBOL cap -80 -48 R0
SYMATTR InstName C2
SYMATTR Value 4.7µ
SYMATTR SpiceLine V=100
TEXT -216 408 Left 2 !.tran 0.6m
