Version 4
SHEET 1 988 680
WIRE 288 -48 224 -48
WIRE 400 -48 288 -48
WIRE 560 -48 400 -48
WIRE 592 -48 560 -48
WIRE 288 -16 288 -48
WIRE -368 0 -384 0
WIRE 16 0 -368 0
WIRE 592 0 592 -48
WIRE 400 48 400 -48
WIRE 464 48 400 48
WIRE 752 48 720 48
WIRE -80 64 -112 64
WIRE 16 64 16 0
WIRE 16 64 -16 64
WIRE 48 64 16 64
WIRE 144 64 112 64
WIRE 224 64 224 -48
WIRE 224 64 144 64
WIRE -384 96 -384 0
WIRE 864 112 832 112
WIRE 928 112 864 112
WIRE -112 128 -112 64
WIRE -112 128 -160 128
WIRE 752 128 752 48
WIRE 752 128 720 128
WIRE 928 128 928 112
WIRE -112 176 -112 128
WIRE -80 176 -112 176
WIRE 16 176 -16 176
WIRE 48 176 16 176
WIRE 144 176 144 64
WIRE 144 176 112 176
WIRE 864 192 864 112
WIRE 464 208 368 208
WIRE 832 208 832 112
WIRE 832 208 720 208
WIRE 368 224 368 208
WIRE -384 256 -384 176
WIRE 16 256 16 176
WIRE 16 256 -384 256
WIRE 800 288 720 288
WIRE -160 304 -160 128
WIRE 16 304 -160 304
WIRE 224 304 16 304
WIRE 800 304 800 288
WIRE 16 368 16 304
WIRE 224 384 224 304
WIRE 288 384 288 48
WIRE 288 384 224 384
WIRE 368 384 368 304
WIRE 368 384 288 384
WIRE 592 384 592 336
WIRE 592 384 368 384
WIRE 800 384 592 384
WIRE 864 384 864 256
WIRE 864 384 800 384
WIRE 928 384 928 208
WIRE 928 384 864 384
FLAG 16 368 0
FLAG -368 0 Vpoe
FLAG 928 112 Vout
FLAG 560 -48 VPORTN
SYMBOL voltage -384 80 R0
WINDOW 123 0 0 Left 2
WINDOW 39 0 0 Left 2
SYMATTR InstName V1
SYMATTR Value SINE(0 48 1k)
SYMBOL schottky 48 80 R270
WINDOW 0 32 32 VTop 2
WINDOW 3 0 32 VBottom 2
SYMATTR InstName D1
SYMATTR Value MBRS1100
SYMATTR Description Diode
SYMATTR Type diode
SYMBOL schottky -80 80 R270
WINDOW 0 32 32 VTop 2
WINDOW 3 0 32 VBottom 2
SYMATTR InstName D2
SYMATTR Value MBRS1100
SYMATTR Description Diode
SYMATTR Type diode
SYMBOL schottky 48 192 R270
WINDOW 0 32 32 VTop 2
WINDOW 3 0 32 VBottom 2
SYMATTR InstName D3
SYMATTR Value MBRS1100
SYMATTR Description Diode
SYMATTR Type diode
SYMBOL schottky -80 192 R270
WINDOW 0 32 32 VTop 2
WINDOW 3 0 32 VBottom 2
SYMATTR InstName D4
SYMATTR Value MBRS1100
SYMATTR Description Diode
SYMATTR Type diode
SYMBOL res 912 112 R0
SYMATTR InstName R1
SYMATTR Value 2.5
SYMBOL PowerProducts\\LTM8050 592 176 R0
SYMATTR InstName U1
SYMBOL res 784 288 R0
SYMATTR InstName R2
SYMATTR Value 89.4k
SYMBOL res 384 320 R180
WINDOW 0 36 76 Left 2
WINDOW 3 36 40 Left 2
SYMATTR InstName R3
SYMATTR Value 93.1k
SYMBOL cap 848 192 R0
SYMATTR InstName C1
SYMATTR Value 100µ
SYMATTR SpiceLine V=6.3
SYMBOL cap 272 -16 R0
SYMATTR InstName C2
SYMATTR Value 4.7µ
SYMATTR SpiceLine V=100
TEXT -416 312 Left 2 !.tran 1m
